tests/corpus/controls/upfc/upfc_vreg.dss
// UPFC mode 1 (series voltage regulator) + the UPFCControl wrapper (UPFC.pas
// GetOutputCurr ModeUPFC=1, l.580-603: injects a series compensating voltage
// Vpq = clamp(VRef-|Vbin|, +/-VpqMax) through Xs to drive the output voltage to
// refkV, uploaded each control round via UPFCControl.DoPendingAction ->
// UploadCurrents). Built on the proven UPFC_test_3 interface-transformer
// topology (the canonical UPFC example runs exactly this mode). Modes 2/3
// (phase-angle / dual) are NOT used here: in dss_capi 0.14.5 the series path
// for mode 2 is a hardcoded stub (GetOutputCurr l.605 CurrOut:=0, identical to
// off) and the mode-2 shunt reactive-comp path needs element= and does not
// converge in this topology (max control iterations), while mode 3 collapses
// onto mode 1's voltage branch here (STATUS records this). Feature-sensitive
// (probe-proven, pinned oracle): mode=0 (off) removes the series injection AND
// changing refkV (0.242->0.250/0.230) each move the regulated output -> a
// distinct model. Compared per step: full model (the series-injected V/I) +
// UPFC mode/refkV probes.
clear
Set DefaultBaseFrequency=60

New circuit.upfcvreg bus1=source_bus.1.0 phases=1 basekv=7.2 pu=1 angle=0
~ mvasc3=2000000 mvasc1=20000000

New xycurve.losses npts=3 xarray=[0.9 1 1.1] yarray=[1.0143 1.008 1.0143]

New xfmrcode.1-ph50kva-2 phases=1 windings=2 ppm=0 xhl=2.04 %noloadloss=.02
~ kvs=[7.2 0.24] kvas=[50 50] %rs=[0.9 0.9] conns=[wye wye]

New xfmrcode.upfcinterface phases=1 windings=3 ppm=0 xhl=.0204 xht=.0204
~ xlt=.0136 %noloadloss=.01 kvs=[0.24 0.12 0.12] kvas=[50 50 50]
~ %rs=[0.006 .012 .012] conns=[wye wye wye]

New transformer.service50kva xfmrcode=1-ph50kva-2 buses=[source_bus.1.0 upfc_input.1]

New upfc.test phases=1 bus1=upfc_input.1 bus2=upfc_output.1 refkv=0.242 mode=1
~ losscurve=losses tol1=0.001 xs=0.02

New upfccontrol.myupfcctrl

New transformer.tupfcout xfmrcode=upfcinterface
~ buses=[upfc_output.1.0 load_bus.1.0 load_bus.0.2]

New load.load120a phases=1 model=1 bus1=load_bus.1.0 kv=0.12 kw=14.98 kvar=10.08
New load.load120b phases=1 model=1 bus1=load_bus.2.0 kv=0.12 kw=12.38 kvar=1.71

Set voltagebases=[12.47 .415 0.208]
calcv
Set tolerance=1e-12
Set maxiterations=100
